# generated using pymatgen
data_CaWN3
_symmetry_space_group_name_H-M   'P 1'
_cell_length_a   3.64648887
_cell_length_b   5.82986282
_cell_length_c   7.50147985
_cell_angle_alpha   105.66371404
_cell_angle_beta   104.06669840
_cell_angle_gamma   90.00000467
_symmetry_Int_Tables_number   1
_chemical_formula_structural   CaWN3
_chemical_formula_sum   'Ca2 W2 N6'
_cell_volume   148.57571054
_cell_formula_units_Z   2
loop_
 _symmetry_equiv_pos_site_id
 _symmetry_equiv_pos_as_xyz
  1  'x, y, z'
loop_
 _atom_site_type_symbol
 _atom_site_label
 _atom_site_symmetry_multiplicity
 _atom_site_fract_x
 _atom_site_fract_y
 _atom_site_fract_z
 _atom_site_occupancy
  Ca  Ca0  1  0.59162000  0.29429000  0.18324000  1
  Ca  Ca1  1  0.40838000  0.70571000  0.81676000  1
  W  W2  1  0.15681000  0.87507000  0.31362000  1
  W  W3  1  0.84319000  0.12493000  0.68638000  1
  N  N4  1  0.12990000  0.55500000  0.25980000  1
  N  N5  1  0.87010000  0.44500000  0.74020000  1
  N  N6  1  0.96577000  0.05501000  0.93154000  1
  N  N7  1  0.30805000  0.97797000  0.61610000  1
  N  N8  1  0.03423000  0.94499000  0.06846000  1
  N  N9  1  0.69195000  0.02203000  0.38390000  1
