# generated using pymatgen
data_Cs2S
_symmetry_space_group_name_H-M   'P 1'
_cell_length_a   5.43815719
_cell_length_b   8.82753641
_cell_length_c   10.53913417
_cell_angle_alpha   90.00000000
_cell_angle_beta   90.00000000
_cell_angle_gamma   90.00000000
_symmetry_Int_Tables_number   1
_chemical_formula_structural   Cs2S
_chemical_formula_sum   'Cs8 S4'
_cell_volume   505.93672787
_cell_formula_units_Z   4
loop_
 _symmetry_equiv_pos_site_id
 _symmetry_equiv_pos_as_xyz
  1  'x, y, z'
loop_
 _atom_site_type_symbol
 _atom_site_label
 _atom_site_symmetry_multiplicity
 _atom_site_fract_x
 _atom_site_fract_y
 _atom_site_fract_z
 _atom_site_occupancy
  Cs  Cs0  1  0.75000000  0.97722243  0.83080979  1
  Cs  Cs1  1  0.25000000  0.02277757  0.16919021  1
  Cs  Cs2  1  0.75000000  0.47722243  0.66919021  1
  Cs  Cs3  1  0.25000000  0.52277757  0.33080979  1
  Cs  Cs4  1  0.75000000  0.85433890  0.42550259  1
  Cs  Cs5  1  0.25000000  0.14566110  0.57449741  1
  Cs  Cs6  1  0.75000000  0.35433890  0.07449741  1
  Cs  Cs7  1  0.25000000  0.64566110  0.92550259  1
  S  S8  1  0.75000000  0.75361287  0.10923867  1
  S  S9  1  0.25000000  0.24638713  0.89076133  1
  S  S10  1  0.75000000  0.25361287  0.39076133  1
  S  S11  1  0.25000000  0.74638713  0.60923867  1
