# generated using pymatgen
data_NaLaS2
_symmetry_space_group_name_H-M   'P 1'
_cell_length_a   8.20241127
_cell_length_b   11.01696673
_cell_length_c   7.35195286
_cell_angle_alpha   28.95542339
_cell_angle_beta   56.07943469
_cell_angle_gamma   41.82813629
_symmetry_Int_Tables_number   1
_chemical_formula_structural   NaLaS2
_chemical_formula_sum   'Na2 La2 S4'
_cell_volume   205.21583448
_cell_formula_units_Z   2
loop_
 _symmetry_equiv_pos_site_id
 _symmetry_equiv_pos_as_xyz
  1  'x, y, z'
loop_
 _atom_site_type_symbol
 _atom_site_label
 _atom_site_symmetry_multiplicity
 _atom_site_fract_x
 _atom_site_fract_y
 _atom_site_fract_z
 _atom_site_occupancy
  Na  Na0  1  0.00247188  0.99817460  0.00184239  1
  Na  Na1  1  0.74580280  0.50523742  0.99420022  1
  La  La2  1  0.25043201  0.50196468  0.99710115  1
  La  La3  1  0.50021456  0.00119402  0.99773216  1
  S  S4  1  0.01360367  0.50128094  0.47059829  1
  S  S5  1  0.48876806  0.49927587  0.52660748  1
  S  S6  1  0.26220324  0.00383728  0.46770390  1
  S  S7  1  0.73631479  0.00198619  0.52412940  1
