# generated using pymatgen
data_PHN2
_symmetry_space_group_name_H-M   'P 1'
_cell_length_a   4.75238430
_cell_length_b   4.78369870
_cell_length_c   4.87289872
_cell_angle_alpha   119.31631449
_cell_angle_beta   119.10527925
_cell_angle_gamma   90.00560515
_symmetry_Int_Tables_number   1
_chemical_formula_structural   PHN2
_chemical_formula_sum   'P2 H2 N4'
_cell_volume   80.16202411
_cell_formula_units_Z   2
loop_
 _symmetry_equiv_pos_site_id
 _symmetry_equiv_pos_as_xyz
  1  'x, y, z'
loop_
 _atom_site_type_symbol
 _atom_site_label
 _atom_site_symmetry_multiplicity
 _atom_site_fract_x
 _atom_site_fract_y
 _atom_site_fract_z
 _atom_site_occupancy
  H  H0  1  0.48423381  0.37416540  0.24839756  1
  H  H1  1  0.76489337  0.87575530  0.25169801  1
  N  N2  1  0.12666108  0.72971718  0.75172878  1
  N  N3  1  0.26941858  0.37486169  0.24903646  1
  N  N4  1  0.62493921  0.01983168  0.74822670  1
  N  N5  1  0.97969805  0.87578241  0.25093987  1
  P  P6  1  0.98985361  0.98982832  0.97968979  1
  P  P7  1  0.26030230  0.76005803  0.52028282  1
