# generated using pymatgen
data_ZrSO
_symmetry_space_group_name_H-M   'P 1'
_cell_length_a   5.77267573
_cell_length_b   5.77267573
_cell_length_c   5.77267573
_cell_angle_alpha   90.00000000
_cell_angle_beta   90.00000000
_cell_angle_gamma   90.00000000
_symmetry_Int_Tables_number   1
_chemical_formula_structural   ZrSO
_chemical_formula_sum   'Zr4 S4 O4'
_cell_volume   192.36740538
_cell_formula_units_Z   4
loop_
 _symmetry_equiv_pos_site_id
 _symmetry_equiv_pos_as_xyz
  1  'x, y, z'
loop_
 _atom_site_type_symbol
 _atom_site_label
 _atom_site_symmetry_multiplicity
 _atom_site_fract_x
 _atom_site_fract_y
 _atom_site_fract_z
 _atom_site_occupancy
  O  O0  1  0.15578268  0.84421732  0.34421732  1
  O  O1  1  0.84421732  0.34421732  0.15578268  1
  O  O2  1  0.65578268  0.65578268  0.65578268  1
  O  O3  1  0.34421732  0.15578268  0.84421732  1
  S  S4  1  0.16921970  0.66921970  0.83078030  1
  S  S5  1  0.83078030  0.16921970  0.66921970  1
  S  S6  1  0.66921970  0.83078030  0.16921970  1
  S  S7  1  0.33078030  0.33078030  0.33078030  1
  Zr  Zr8  1  0.92938987  0.57061013  0.42938987  1
  Zr  Zr9  1  0.57061013  0.42938987  0.92938987  1
  Zr  Zr10  1  0.42938987  0.92938987  0.57061013  1
  Zr  Zr11  1  0.07061013  0.07061013  0.07061013  1
